<?xml version="1.0" encoding="UTF-8"?>

<!-- generated on 2024-10-08 10:03:26.417487 by randomTrips.py UNKNOWN
<configuration>
    <net-file value="valencia_roads_edited.net.xml"/>
    <additional-files value="valencia_trips.add.xml"/>
    <route-file value="valencia_test.rou.xml"/>
    <trip-attributes value="departLane=&quot;best&quot; departSpeed=&quot;max&quot; departPos=&quot;random&quot; type=&quot;diesel_e4&quot;"/>
    <random value="True"/>
    <min-distance value="1250.0"/>
    <insertion-rate value="10000.0"/>
</configuration>
-->

<routes xmlns:xsi="http://www.w3.org/2001/XMLSchema-instance" xsi:noNamespaceSchemaLocation="http://sumo.dlr.de/xsd/routes_file.xsd">
    <trip id="0" depart="0.00" from="40922590#2" to="23396692#1" departLane="best" departSpeed="max" departPos="random" type="diesel_e4"/>
    <trip id="1" depart="0.36" from="41417609" to="23761811#0" departLane="best" departSpeed="max" departPos="random" type="diesel_e4"/>
    <trip id="2" depart="0.72" from="29242180#1" to="23437434#0" departLane="best" departSpeed="max" departPos="random" type="diesel_e4"/>
    <trip id="3" depart="1.08" from="997545151#0" to="143267359" departLane="best" departSpeed="max" departPos="random" type="diesel_e4"/>
    <trip id="4" depart="1.44" from="23332812#8" to="12211953#1" departLane="best" departSpeed="max" departPos="random" type="diesel_e4"/>
    <trip id="5" depart="1.80" from="45319318#2" to="-142642226" departLane="best" departSpeed="max" departPos="random" type="diesel_e4"/>
    <trip id="6" depart="2.16" from="13838447#2" to="22730092#0" departLane="best" departSpeed="max" departPos="random" type="diesel_e4"/>
    <trip id="7" depart="2.52" from="23630481#2" to="12714852#0" departLane="best" departSpeed="max" departPos="random" type="diesel_e4"/>
    <trip id="8" depart="2.88" from="22740775#4" to="-150359957#2" departLane="best" departSpeed="max" departPos="random" type="diesel_e4"/>
    <trip id="9" depart="3.24" from="-30974568#0" to="36971123#1" departLane="best" departSpeed="max" departPos="random" type="diesel_e4"/>
    <trip id="10" depart="3.60" from="501436267" to="468909201#1" departLane="best" departSpeed="max" departPos="random" type="diesel_e4"/>
    <trip id="11" depart="3.96" from="52394722#0" to="660687869" departLane="best" departSpeed="max" departPos="random" type="diesel_e4"/>
    <trip id="12" depart="4.32" from="73314155#0" to="22893982#0" departLane="best" departSpeed="max" departPos="random" type="diesel_e4"/>
    <trip id="13" depart="4.68" from="-4890120#0" to="-40945748#0" departLane="best" departSpeed="max" departPos="random" type="diesel_e4"/>
    <trip id="14" depart="5.04" from="23160470#0" to="23795993#0" departLane="best" departSpeed="max" departPos="random" type="diesel_e4"/>
    <trip id="15" depart="5.40" from="-115841342" to="750929431#2" departLane="best" departSpeed="max" departPos="random" type="diesel_e4"/>
    <trip id="16" depart="5.76" from="466093954#1" to="12462256#4" departLane="best" departSpeed="max" departPos="random" type="diesel_e4"/>
    <trip id="17" depart="6.12" from="39729277#1" to="654809861#3" departLane="best" departSpeed="max" departPos="random" type="diesel_e4"/>
    <trip id="18" depart="6.48" from="41393232#4" to="23574692" departLane="best" departSpeed="max" departPos="random" type="diesel_e4"/>
    <trip id="19" depart="6.84" from="116822301#2" to="23576823#1" departLane="best" departSpeed="max" departPos="random" type="diesel_e4"/>
    <trip id="20" depart="7.20" from="142062670#0" to="149394179#1" departLane="best" departSpeed="max" departPos="random" type="diesel_e4"/>
    <trip id="21" depart="7.56" from="25451778#0" to="-168705376" departLane="best" departSpeed="max" departPos="random" type="diesel_e4"/>
    <trip id="22" depart="7.92" from="23776927#3" to="23539803#1" departLane="best" departSpeed="max" departPos="random" type="diesel_e4"/>
    <trip id="23" depart="8.28" from="39631379#0" to="-142063916#0" departLane="best" departSpeed="max" departPos="random" type="diesel_e4"/>
    <trip id="24" depart="8.64" from="678228852" to="23776586#4" departLane="best" departSpeed="max" departPos="random" type="diesel_e4"/>
    <trip id="25" depart="9.00" from="11853833#5" to="23700881#0" departLane="best" departSpeed="max" departPos="random" type="diesel_e4"/>
    <trip id="26" depart="9.36" from="29263035#1" to="23502057#2" departLane="best" departSpeed="max" departPos="random" type="diesel_e4"/>
    <trip id="27" depart="9.72" from="-177686858#0" to="30014847#1" departLane="best" departSpeed="max" departPos="random" type="diesel_e4"/>
    <trip id="28" depart="10.08" from="656984076#0" to="-76563469#2" departLane="best" departSpeed="max" departPos="random" type="diesel_e4"/>
    <trip id="29" depart="10.44" from="187025452" to="52361622" departLane="best" departSpeed="max" departPos="random" type="diesel_e4"/>
    <trip id="30" depart="10.80" from="14336161#0" to="156039374" departLane="best" departSpeed="max" departPos="random" type="diesel_e4"/>
    <trip id="31" depart="11.16" from="9289281#0" to="-39674664#5" departLane="best" departSpeed="max" departPos="random" type="diesel_e4"/>
    <trip id="32" depart="11.52" from="13470109#0" to="12376406#1" departLane="best" departSpeed="max" departPos="random" type="diesel_e4"/>
    <trip id="33" depart="11.88" from="468909272" to="19801821#0" departLane="best" departSpeed="max" departPos="random" type="diesel_e4"/>
    <trip id="34" depart="12.24" from="-37248122#3" to="34693796#2" departLane="best" departSpeed="max" departPos="random" type="diesel_e4"/>
    <trip id="35" depart="12.60" from="18592810#9" to="23738791#3" departLane="best" departSpeed="max" departPos="random" type="diesel_e4"/>
    <trip id="36" depart="12.96" from="13859228" to="39631367#1" departLane="best" departSpeed="max" departPos="random" type="diesel_e4"/>
    <trip id="37" depart="13.32" from="144257076#0" to="144588606#3" departLane="best" departSpeed="max" departPos="random" type="diesel_e4"/>
    <trip id="38" depart="13.68" from="39958751#0" to="95512934#0" departLane="best" departSpeed="max" departPos="random" type="diesel_e4"/>
    <trip id="39" depart="14.04" from="11974877#6" to="23776460#2" departLane="best" departSpeed="max" departPos="random" type="diesel_e4"/>
    <trip id="40" depart="14.40" from="23738813#4" to="149967499" departLane="best" departSpeed="max" departPos="random" type="diesel_e4"/>
    <trip id="41" depart="14.76" from="29262935#1" to="22730091#2" departLane="best" departSpeed="max" departPos="random" type="diesel_e4"/>
    <trip id="42" depart="15.12" from="658135637#0" to="727476846" departLane="best" departSpeed="max" departPos="random" type="diesel_e4"/>
    <trip id="43" depart="15.48" from="-187249906" to="61722221#10" departLane="best" departSpeed="max" departPos="random" type="diesel_e4"/>
    <trip id="44" depart="15.84" from="-150637612#0" to="-280306902" departLane="best" departSpeed="max" departPos="random" type="diesel_e4"/>
    <trip id="45" depart="16.20" from="23396729#2" to="172463205#1" departLane="best" departSpeed="max" departPos="random" type="diesel_e4"/>
    <trip id="46" depart="16.56" from="23365296#1" to="23397562#0-AddedOffRampEdge" departLane="best" departSpeed="max" departPos="random" type="diesel_e4"/>
    <trip id="47" depart="16.92" from="693895337#0" to="224035601#1" departLane="best" departSpeed="max" departPos="random" type="diesel_e4"/>
    <trip id="48" depart="17.28" from="32654315#2" to="165580710#0" departLane="best" departSpeed="max" departPos="random" type="diesel_e4"/>
    <trip id="49" depart="17.64" from="240799191" to="-218418110#0" departLane="best" departSpeed="max" departPos="random" type="diesel_e4"/>
    <trip id="50" depart="18.00" from="-23548201#0" to="444579113#0" departLane="best" departSpeed="max" departPos="random" type="diesel_e4"/>
    <trip id="51" depart="18.36" from="723001379#2" to="705538544#1" departLane="best" departSpeed="max" departPos="random" type="diesel_e4"/>
    <trip id="52" depart="18.72" from="185459367#4" to="23502227#1" departLane="best" departSpeed="max" departPos="random" type="diesel_e4"/>
    <trip id="53" depart="19.08" from="23700847#2" to="-11974885#1" departLane="best" departSpeed="max" departPos="random" type="diesel_e4"/>
    <trip id="54" depart="19.44" from="23413084#9" to="7666174#1" departLane="best" departSpeed="max" departPos="random" type="diesel_e4"/>
    <trip id="55" depart="19.80" from="-44040998#1" to="35777457" departLane="best" departSpeed="max" departPos="random" type="diesel_e4"/>
    <trip id="56" depart="20.16" from="-904096323#1" to="76563469#2" departLane="best" departSpeed="max" departPos="random" type="diesel_e4"/>
    <trip id="57" depart="20.52" from="23438182#2" to="37043283#1" departLane="best" departSpeed="max" departPos="random" type="diesel_e4"/>
    <trip id="58" depart="20.88" from="41394285#2" to="29262930#4" departLane="best" departSpeed="max" departPos="random" type="diesel_e4"/>
    <trip id="59" depart="21.24" from="15573821#1-AddedOnRampEdge" to="186317980#0" departLane="best" departSpeed="max" departPos="random" type="diesel_e4"/>
    <trip id="60" depart="21.60" from="119438702#0" to="-93602122" departLane="best" departSpeed="max" departPos="random" type="diesel_e4"/>
    <trip id="61" depart="21.96" from="-783193210#0" to="23760995#0" departLane="best" departSpeed="max" departPos="random" type="diesel_e4"/>
    <trip id="62" depart="22.32" from="119442596#0" to="191581171#4" departLane="best" departSpeed="max" departPos="random" type="diesel_e4"/>
    <trip id="63" depart="22.68" from="-366894718#2" to="37043289" departLane="best" departSpeed="max" departPos="random" type="diesel_e4"/>
    <trip id="64" depart="23.04" from="186577934" to="939059110" departLane="best" departSpeed="max" departPos="random" type="diesel_e4"/>
    <trip id="65" depart="23.40" from="292712171#2" to="-41418040#1" departLane="best" departSpeed="max" departPos="random" type="diesel_e4"/>
    <trip id="66" depart="23.76" from="29249292#3" to="-691657033#0" departLane="best" departSpeed="max" departPos="random" type="diesel_e4"/>
    <trip id="67" depart="24.12" from="-45319332#3" to="23557404#3" departLane="best" departSpeed="max" departPos="random" type="diesel_e4"/>
    <trip id="68" depart="24.48" from="704499332#0" to="212741243" departLane="best" departSpeed="max" departPos="random" type="diesel_e4"/>
    <trip id="69" depart="24.84" from="727141355#3" to="23700897#1" departLane="best" departSpeed="max" departPos="random" type="diesel_e4"/>
    <trip id="70" depart="25.20" from="447171420#1" to="-41723788#2" departLane="best" departSpeed="max" departPos="random" type="diesel_e4"/>
    <trip id="71" depart="25.56" from="98711533#0" to="-311945384#1" departLane="best" departSpeed="max" departPos="random" type="diesel_e4"/>
    <trip id="72" depart="25.92" from="149421969#1" to="23549998" departLane="best" departSpeed="max" departPos="random" type="diesel_e4"/>
    <trip id="73" depart="26.28" from="820299471#0" to="18752890#0" departLane="best" departSpeed="max" departPos="random" type="diesel_e4"/>
    <trip id="74" depart="26.64" from="-142604837#1" to="23793739#14" departLane="best" departSpeed="max" departPos="random" type="diesel_e4"/>
    <trip id="75" depart="27.00" from="12403597#0" to="11828742#3" departLane="best" departSpeed="max" departPos="random" type="diesel_e4"/>
    <trip id="76" depart="27.36" from="23397592#0" to="29243435#6" departLane="best" departSpeed="max" departPos="random" type="diesel_e4"/>
    <trip id="77" depart="27.72" from="12874125" to="-23588342#3" departLane="best" departSpeed="max" departPos="random" type="diesel_e4"/>
    <trip id="78" depart="28.08" from="150637611" to="-41715753#0" departLane="best" departSpeed="max" departPos="random" type="diesel_e4"/>
    <trip id="79" depart="28.44" from="23557404#4" to="909342633" departLane="best" departSpeed="max" departPos="random" type="diesel_e4"/>
    <trip id="80" depart="28.80" from="-39640984#1" to="237016064#7" departLane="best" departSpeed="max" departPos="random" type="diesel_e4"/>
    <trip id="81" depart="29.16" from="41791845#1" to="-36968700" departLane="best" departSpeed="max" departPos="random" type="diesel_e4"/>
    <trip id="82" depart="29.52" from="649267867#1" to="211244236#0" departLane="best" departSpeed="max" departPos="random" type="diesel_e4"/>
    <trip id="83" depart="29.88" from="23738817" to="-144047530#2" departLane="best" departSpeed="max" departPos="random" type="diesel_e4"/>
    <trip id="84" depart="30.24" from="41394285#2" to="23776514#1" departLane="best" departSpeed="max" departPos="random" type="diesel_e4"/>
    <trip id="85" depart="30.60" from="23438178#6" to="-23630484#3" departLane="best" departSpeed="max" departPos="random" type="diesel_e4"/>
    <trip id="86" depart="30.96" from="623902713#13" to="832188825#0" departLane="best" departSpeed="max" departPos="random" type="diesel_e4"/>
    <trip id="87" depart="31.32" from="-155002495" to="118695411#1" departLane="best" departSpeed="max" departPos="random" type="diesel_e4"/>
    <trip id="88" depart="31.68" from="23454533#6" to="30711637" departLane="best" departSpeed="max" departPos="random" type="diesel_e4"/>
    <trip id="89" depart="32.04" from="142788786" to="168959291#1" departLane="best" departSpeed="max" departPos="random" type="diesel_e4"/>
    <trip id="90" depart="32.40" from="22740787#0" to="-925999453#2" departLane="best" departSpeed="max" departPos="random" type="diesel_e4"/>
    <trip id="91" depart="32.76" from="186577923#2" to="23793745#3" departLane="best" departSpeed="max" departPos="random" type="diesel_e4"/>
    <trip id="92" depart="33.12" from="-150632775#4" to="23509497#1" departLane="best" departSpeed="max" departPos="random" type="diesel_e4"/>
    <trip id="93" depart="33.48" from="-52391683#0" to="-149394187#3" departLane="best" departSpeed="max" departPos="random" type="diesel_e4"/>
    <trip id="94" depart="33.84" from="707024133#0" to="23795364#1" departLane="best" departSpeed="max" departPos="random" type="diesel_e4"/>
    <trip id="95" depart="34.20" from="44040998#0" to="211561479#4" departLane="best" departSpeed="max" departPos="random" type="diesel_e4"/>
    <trip id="96" depart="34.56" from="191774859#4" to="-763948656#13" departLane="best" departSpeed="max" departPos="random" type="diesel_e4"/>
    <trip id="97" depart="34.92" from="-23738794#2" to="437072290#1" departLane="best" departSpeed="max" departPos="random" type="diesel_e4"/>
    <trip id="98" depart="35.28" from="36979487#0" to="116822299#2" departLane="best" departSpeed="max" departPos="random" type="diesel_e4"/>
    <trip id="99" depart="35.64" from="-32654315#7" to="29229939#2" departLane="best" departSpeed="max" departPos="random" type="diesel_e4"/>
    <trip id="100" depart="36.00" from="424888715" to="-84381020#0" departLane="best" departSpeed="max" departPos="random" type="diesel_e4"/>
    <trip id="101" depart="36.36" from="227798924" to="-44045541#4" departLane="best" departSpeed="max" departPos="random" type="diesel_e4"/>
    <trip id="102" depart="36.72" from="147294911#5" to="29262399" departLane="best" departSpeed="max" departPos="random" type="diesel_e4"/>
    <trip id="103" depart="37.08" from="11826803#3" to="-44643452#1" departLane="best" departSpeed="max" departPos="random" type="diesel_e4"/>
    <trip id="104" depart="37.44" from="-217845188" to="23330414#1" departLane="best" departSpeed="max" departPos="random" type="diesel_e4"/>
    <trip id="105" depart="37.80" from="41393220#3" to="831769947#0" departLane="best" departSpeed="max" departPos="random" type="diesel_e4"/>
    <trip id="106" depart="38.16" from="183207393#1" to="18752874#0" departLane="best" departSpeed="max" departPos="random" type="diesel_e4"/>
    <trip id="107" depart="38.52" from="-210138161" to="150668478#0" departLane="best" departSpeed="max" departPos="random" type="diesel_e4"/>
    <trip id="108" depart="38.88" from="4795048#0" to="6277194#0" departLane="best" departSpeed="max" departPos="random" type="diesel_e4"/>
    <trip id="109" depart="39.24" from="23700886#3" to="29237561#2" departLane="best" departSpeed="max" departPos="random" type="diesel_e4"/>
    <trip id="110" depart="39.60" from="41413973#1" to="52092221" departLane="best" departSpeed="max" departPos="random" type="diesel_e4"/>
    <trip id="111" depart="39.96" from="474221401" to="35777458" departLane="best" departSpeed="max" departPos="random" type="diesel_e4"/>
    <trip id="112" depart="40.32" from="-18752897#3" to="191199117#11" departLane="best" departSpeed="max" departPos="random" type="diesel_e4"/>
    <trip id="113" depart="40.68" from="-23565102#1" to="29280853" departLane="best" departSpeed="max" departPos="random" type="diesel_e4"/>
    <trip id="114" depart="41.04" from="23413063#0" to="23760940#0" departLane="best" departSpeed="max" departPos="random" type="diesel_e4"/>
    <trip id="115" depart="41.40" from="-23796006#2" to="23795355#3" departLane="best" departSpeed="max" departPos="random" type="diesel_e4"/>
    <trip id="116" depart="41.76" from="11938420#6" to="29242611#4" departLane="best" departSpeed="max" departPos="random" type="diesel_e4"/>
    <trip id="117" depart="42.12" from="36968779#6" to="-12003413#1" departLane="best" departSpeed="max" departPos="random" type="diesel_e4"/>
    <trip id="118" depart="42.48" from="23576221" to="721958461" departLane="best" departSpeed="max" departPos="random" type="diesel_e4"/>
    <trip id="119" depart="42.84" from="191149811#5" to="-18752915#0" departLane="best" departSpeed="max" departPos="random" type="diesel_e4"/>
    <trip id="120" depart="43.20" from="77213044#3" to="-319078314#0" departLane="best" departSpeed="max" departPos="random" type="diesel_e4"/>
    <trip id="121" depart="43.56" from="17341274#3" to="919252162#1" departLane="best" departSpeed="max" departPos="random" type="diesel_e4"/>
    <trip id="122" depart="43.92" from="52346049#3" to="824958298#4" departLane="best" departSpeed="max" departPos="random" type="diesel_e4"/>
    <trip id="123" depart="44.28" from="30974554#5" to="39743903#1" departLane="best" departSpeed="max" departPos="random" type="diesel_e4"/>
    <trip id="124" depart="44.64" from="544883057" to="23413066#2" departLane="best" departSpeed="max" departPos="random" type="diesel_e4"/>
    <trip id="125" depart="45.00" from="23455740#0" to="52346059#0" departLane="best" departSpeed="max" departPos="random" type="diesel_e4"/>
    <trip id="126" depart="45.36" from="12376371#0" to="903691367" departLane="best" departSpeed="max" departPos="random" type="diesel_e4"/>
    <trip id="127" depart="45.72" from="8099705#0" to="428944438" departLane="best" departSpeed="max" departPos="random" type="diesel_e4"/>
    <trip id="128" depart="46.08" from="-588517229#1" to="41791409#3" departLane="best" departSpeed="max" departPos="random" type="diesel_e4"/>
    <trip id="129" depart="46.44" from="23795272#0" to="625674511" departLane="best" departSpeed="max" departPos="random" type="diesel_e4"/>
    <trip id="130" depart="46.80" from="23524462#1" to="187436858#1" departLane="best" departSpeed="max" departPos="random" type="diesel_e4"/>
    <trip id="131" depart="47.16" from="839935901" to="12403519#1" departLane="best" departSpeed="max" departPos="random" type="diesel_e4"/>
    <trip id="132" depart="47.52" from="36971106#3" to="-149394178#5" departLane="best" departSpeed="max" departPos="random" type="diesel_e4"/>
    <trip id="133" depart="47.88" from="37043282#2" to="40945740#1" departLane="best" departSpeed="max" departPos="random" type="diesel_e4"/>
    <trip id="134" depart="48.24" from="756650784" to="-144047701#0" departLane="best" departSpeed="max" departPos="random" type="diesel_e4"/>
    <trip id="135" depart="48.60" from="367711145#1" to="466093899#1" departLane="best" departSpeed="max" departPos="random" type="diesel_e4"/>
    <trip id="136" depart="48.96" from="468909203" to="-149394200#2" departLane="best" departSpeed="max" departPos="random" type="diesel_e4"/>
    <trip id="137" depart="49.32" from="36968755#4" to="45073748" departLane="best" departSpeed="max" departPos="random" type="diesel_e4"/>
    <trip id="138" depart="49.68" from="29269487#0" to="23793744#0" departLane="best" departSpeed="max" departPos="random" type="diesel_e4"/>
    <trip id="139" depart="50.04" from="-642096741#1" to="-168551235#0" departLane="best" departSpeed="max" departPos="random" type="diesel_e4"/>
    <trip id="140" depart="50.40" from="428944530" to="12211951#1" departLane="best" departSpeed="max" departPos="random" type="diesel_e4"/>
    <trip id="141" depart="50.76" from="-217878323#1" to="168586068#2" departLane="best" departSpeed="max" departPos="random" type="diesel_e4"/>
    <trip id="142" depart="51.12" from="237114933#0" to="158514723" departLane="best" departSpeed="max" departPos="random" type="diesel_e4"/>
    <trip id="143" depart="51.48" from="48780772" to="-187249891" departLane="best" departSpeed="max" departPos="random" type="diesel_e4"/>
    <trip id="144" depart="51.84" from="13859952#2" to="-914450914" departLane="best" departSpeed="max" departPos="random" type="diesel_e4"/>
    <trip id="145" depart="52.20" from="36971127" to="-23565104#1" departLane="best" departSpeed="max" departPos="random" type="diesel_e4"/>
    <trip id="146" depart="52.56" from="39631349#0" to="-30974533#0" departLane="best" departSpeed="max" departPos="random" type="diesel_e4"/>
    <trip id="147" depart="52.92" from="172462246#2" to="29238327#0" departLane="best" departSpeed="max" departPos="random" type="diesel_e4"/>
    <trip id="148" depart="53.28" from="-23377172#1" to="913268096#4" departLane="best" departSpeed="max" departPos="random" type="diesel_e4"/>
    <trip id="149" depart="53.64" from="144047701#1" to="36968704#1" departLane="best" departSpeed="max" departPos="random" type="diesel_e4"/>
    <trip id="150" depart="54.00" from="-19796926#1" to="191199117#0" departLane="best" departSpeed="max" departPos="random" type="diesel_e4"/>
    <trip id="151" depart="54.36" from="-784308939" to="754055779" departLane="best" departSpeed="max" departPos="random" type="diesel_e4"/>
    <trip id="152" depart="54.72" from="-18752895#1" to="649206392#0" departLane="best" departSpeed="max" departPos="random" type="diesel_e4"/>
    <trip id="153" depart="55.08" from="437056168" to="41336007" departLane="best" departSpeed="max" departPos="random" type="diesel_e4"/>
    <trip id="154" depart="55.44" from="640319784" to="12403597#0" departLane="best" departSpeed="max" departPos="random" type="diesel_e4"/>
    <trip id="155" depart="55.80" from="13470119#5" to="13963491#5" departLane="best" departSpeed="max" departPos="random" type="diesel_e4"/>
    <trip id="156" depart="56.16" from="191199126#0" to="693536909" departLane="best" departSpeed="max" departPos="random" type="diesel_e4"/>
    <trip id="157" depart="56.52" from="625677535" to="626724349#0" departLane="best" departSpeed="max" departPos="random" type="diesel_e4"/>
    <trip id="158" depart="56.88" from="23375934#5" to="-12386455#10" departLane="best" departSpeed="max" departPos="random" type="diesel_e4"/>
    <trip id="159" depart="57.24" from="41417188#1" to="154994441#0" departLane="best" departSpeed="max" departPos="random" type="diesel_e4"/>
    <trip id="160" depart="57.60" from="-36968734#1" to="428764934#3" departLane="best" departSpeed="max" departPos="random" type="diesel_e4"/>
    <trip id="161" depart="57.96" from="187436886#1" to="23502257#1" departLane="best" departSpeed="max" departPos="random" type="diesel_e4"/>
    <trip id="162" depart="58.32" from="-386867758#0" to="41723792#0" departLane="best" departSpeed="max" departPos="random" type="diesel_e4"/>
    <trip id="163" depart="58.68" from="677746898#4" to="303738084" departLane="best" departSpeed="max" departPos="random" type="diesel_e4"/>
    <trip id="164" depart="59.04" from="40549799#0" to="41413974#0" departLane="best" departSpeed="max" departPos="random" type="diesel_e4"/>
    <trip id="165" depart="59.40" from="638030545#1" to="61722162#0" departLane="best" departSpeed="max" departPos="random" type="diesel_e4"/>
    <trip id="166" depart="59.76" from="36968782#0" to="39631760#2" departLane="best" departSpeed="max" departPos="random" type="diesel_e4"/>
    <trip id="167" depart="60.12" from="-12096772#11" to="29249292#3" departLane="best" departSpeed="max" departPos="random" type="diesel_e4"/>
    <trip id="168" depart="60.48" from="824958306#0" to="154012357#13" departLane="best" departSpeed="max" departPos="random" type="diesel_e4"/>
    <trip id="169" depart="60.84" from="36971125" to="11826803#3" departLane="best" departSpeed="max" departPos="random" type="diesel_e4"/>
    <trip id="170" depart="61.20" from="23539802" to="467787135" departLane="best" departSpeed="max" departPos="random" type="diesel_e4"/>
    <trip id="171" depart="61.56" from="-91250670#1" to="-210138126#1" departLane="best" departSpeed="max" departPos="random" type="diesel_e4"/>
    <trip id="172" depart="61.92" from="23700866#0" to="9281131#0" departLane="best" departSpeed="max" departPos="random" type="diesel_e4"/>
    <trip id="173" depart="62.28" from="144015568" to="11974885#0" departLane="best" departSpeed="max" departPos="random" type="diesel_e4"/>
    <trip id="174" depart="62.64" from="11676063#7" to="10249500#1" departLane="best" departSpeed="max" departPos="random" type="diesel_e4"/>
    <trip id="175" depart="63.00" from="186184957#8" to="23796011#0" departLane="best" departSpeed="max" departPos="random" type="diesel_e4"/>
    <trip id="176" depart="63.36" from="41791397#1" to="10380715#9" departLane="best" departSpeed="max" departPos="random" type="diesel_e4"/>
    <trip id="177" depart="63.72" from="23524478#0" to="4823221#0" departLane="best" departSpeed="max" departPos="random" type="diesel_e4"/>
    <trip id="178" depart="64.08" from="30819171" to="52391674#6" departLane="best" departSpeed="max" departPos="random" type="diesel_e4"/>
    <trip id="179" depart="64.44" from="165697743" to="409305522#1" departLane="best" departSpeed="max" departPos="random" type="diesel_e4"/>
    <trip id="180" depart="64.80" from="468909266" to="-115499412" departLane="best" departSpeed="max" departPos="random" type="diesel_e4"/>
    <trip id="181" depart="65.16" from="237114939#0" to="-150386239" departLane="best" departSpeed="max" departPos="random" type="diesel_e4"/>
    <trip id="182" depart="65.52" from="-40549975#1" to="11974879#5" departLane="best" departSpeed="max" departPos="random" type="diesel_e4"/>
    <trip id="183" depart="65.88" from="-18752879#3" to="23375920#4" departLane="best" departSpeed="max" departPos="random" type="diesel_e4"/>
    <trip id="184" depart="66.24" from="41723296" to="191774859#3" departLane="best" departSpeed="max" departPos="random" type="diesel_e4"/>
    <trip id="185" depart="66.60" from="143277289#0" to="-640323290#2" departLane="best" departSpeed="max" departPos="random" type="diesel_e4"/>
    <trip id="186" depart="66.96" from="-23454510" to="-41715764#4" departLane="best" departSpeed="max" departPos="random" type="diesel_e4"/>
    <trip id="187" depart="67.32" from="165285290#3" to="18439317#0" departLane="best" departSpeed="max" departPos="random" type="diesel_e4"/>
    <trip id="188" depart="67.68" from="488462566#0" to="52361626#6" departLane="best" departSpeed="max" departPos="random" type="diesel_e4"/>
    <trip id="189" depart="68.04" from="-23697655#0" to="23332809#0" departLane="best" departSpeed="max" departPos="random" type="diesel_e4"/>
    <trip id="190" depart="68.40" from="168959735" to="23413082#0" departLane="best" departSpeed="max" departPos="random" type="diesel_e4"/>
    <trip id="191" depart="68.76" from="44643229#0" to="-23795355#3" departLane="best" departSpeed="max" departPos="random" type="diesel_e4"/>
    <trip id="192" depart="69.12" from="-23574707#0" to="168704610#0" departLane="best" departSpeed="max" departPos="random" type="diesel_e4"/>
    <trip id="193" depart="69.48" from="737256877#0" to="-142715223" departLane="best" departSpeed="max" departPos="random" type="diesel_e4"/>
    <trip id="194" depart="69.84" from="149632997#2" to="11823730#0" departLane="best" departSpeed="max" departPos="random" type="diesel_e4"/>
    <trip id="195" depart="70.20" from="34693796#1" to="-23760980#15" departLane="best" departSpeed="max" departPos="random" type="diesel_e4"/>
    <trip id="196" depart="70.56" from="23455538#12" to="6277214#2" departLane="best" departSpeed="max" departPos="random" type="diesel_e4"/>
    <trip id="197" depart="70.92" from="39729280#2" to="36985981#0" departLane="best" departSpeed="max" departPos="random" type="diesel_e4"/>
    <trip id="198" depart="71.28" from="44047658#3" to="26506427" departLane="best" departSpeed="max" departPos="random" type="diesel_e4"/>
    <trip id="199" depart="71.64" from="23614680" to="9281538#37" departLane="best" departSpeed="max" departPos="random" type="diesel_e4"/>
    <trip id="200" depart="72.00" from="-52394749#0" to="-218418117" departLane="best" departSpeed="max" departPos="random" type="diesel_e4"/>
    <trip id="201" depart="72.36" from="142704189" to="23413872#5" departLane="best" departSpeed="max" departPos="random" type="diesel_e4"/>
    <trip id="202" depart="72.72" from="246543929" to="4704763#0" departLane="best" departSpeed="max" departPos="random" type="diesel_e4"/>
    <trip id="203" depart="73.08" from="45065471#2" to="39631751#0" departLane="best" departSpeed="max" departPos="random" type="diesel_e4"/>
    <trip id="204" depart="73.44" from="187025452" to="115108479#0" departLane="best" departSpeed="max" departPos="random" type="diesel_e4"/>
    <trip id="205" depart="73.80" from="39631389#0" to="680229179#0" departLane="best" departSpeed="max" departPos="random" type="diesel_e4"/>