<additional>
	<vType id="diesel_e4" vClass="passenger" emissionClass="HBEFA4/PC_diesel_Euro-4"/>
</additional>
